Flow Title=Flow100
Program Version=4.10
Number of Profiles= 1 
Profile Names=PF 1
River Rch & RM=CCN,1               ,894     
     100
Boundary for River Rch & Prof#=CCN,1               , 1 
Up Type= 0 
Dn Type= 3 
Dn Slope=0.044
DSS Import StartDate=
DSS Import StartTime=
DSS Import EndDate=
DSS Import EndTime=
DSS Import GetInterval= 0 
DSS Import Interval=
DSS Import GetPeak= 0 
DSS Import FillOption= 0 
